output/ny_only_package_a/bounded_reconstruction_bus.csv
source_bus,bus_type,vm_pu,vmin_pu,vmax_pu,p_mismatch_mw,q_mismatch_mvar,voltage_below_min_pu,voltage_above_max_pu,violated,invalid_voltage_bounds
1,1,1.01487680411229,0.9,1.1,4.707090297984e-06,-6.52533041489711e-07,0,0,0,0
2,1,1.0095636480401,0.9,1.1,1.00206244635359e-07,-2.77219248072521e-08,0,0,0,0
3,1,1.01663868090256,0.9,1.1,1.88137546430767e-07,-3.00977039298378e-08,0,0,0,0
4,1,1.01250606968299,0.9,1.1,2.01041899572374e-06,-2.98979777046959e-07,0,0,0,0
5,1,1.01847535448577,0.9,1.1,1.50464167347764e-07,-2.60890589513785e-08,0,0,0,0
6,2,1.03541833777559,0.9,1.1,-7.41985271979217e-06,1.7323356451826e-06,0,0,0,0
7,1,1.03267872806344,0.9,1.1,3.61263557735469e-07,-5.75082832916796e-08,0,0,0,0
8,1,1.01335272276738,0.9,1.1,5.99454881289319e-07,-9.11477386622561e-08,0,0,0,0
9,1,1.05585832298677,0.9,1.1,2.18825204001405e-06,6.79355496857603e-07,0,0,0,0
10,1,1.00316456099875,0.9,1.1,4.46184525770832e-07,-7.16625127294979e-08,0,0,0,0
11,1,1.01682515467943,0.9,1.1,3.8010241176778e-07,-5.84821815974301e-08,0,0,0,0
12,1,1.02388472864013,0.9,1.1,2.06255601487015e-07,-3.55362842451024e-08,0,0,0,0
13,1,1.01929021048005,0.9,1.1,8.67513804791997e-07,-1.3742744633255e-07,0,0,0,0
14,1,1.01921561003751,0.9,1.1,2.18608948721055e-07,-3.47382912040985e-08,0,0,0,0
15,2,1.02675301736705,0.9,1.1,5.3932062193951e-07,-7.63182721019717e-07,0,0,0,0
16,1,1.0046221040977,0.9,1.1,-2.29877155533131e-07,4.22410460776401e-08,0,0,0,0
17,2,1.06356342351299,0.9,1.1,4.67443663865197e-06,2.28582513273068e-06,0,0,0,0
18,2,1.06856561610029,0.9,1.1,9.02035992567107e-07,-3.55794373518847e-06,0,0,0,0
19,2,1.03691516002248,0.9,1.1,-6.77564003126463e-06,-5.42895095634321e-06,0,0,0,0
20,1,1.01929072183086,0.9,1.1,2.17421368020609e-07,-3.72783335450544e-08,0,0,0,0
21,1,1.01914733794568,0.9,1.1,4.20277856960638e-07,-7.0952503694599e-07,0,0,0,0
22,1,1.0055789120263,0.9,1.1,1.07392485571012e-07,-2.96877825098417e-08,0,0,0,0
23,1,0.999656164901234,0.9,1.1,1.16870474187181e-06,-2.6928145069674e-07,0,0,0,0
24,2,1.02516672270229,0.9,1.1,1.15903362285508e-06,-1.44148603786753e-06,0,0,0,0
25,1,1.03140206127083,0.9,1.1,6.71525119955163e-08,-1.06795206358812e-08,0,0,0,0
26,2,1.07531962286332,0.9,1.1,-5.78397157369182e-06,-1.45578985666361e-05,0,0,0,0
27,2,1.01470979604047,0.9,1.1,-7.0077197875662e-06,6.50772265942123e-06,0,0,0,0
28,2,1.01903510385162,0.9,1.1,1.19132283149526e-07,-2.35109246307652e-08,0,0,0,0
29,2,1.0177488772216,0.9,1.1,-2.46376558266093e-06,-1.04126757349832e-06,0,0,0,0
30,2,1.01653448178435,0.9,1.1,-3.36023153835185e-06,-2.55513747049463e-07,0,0,0,0
31,2,1.01431009551866,0.9,1.1,-1.87286783699392e-05,4.25585906757564e-06,0,0,0,0
32,2,1.01402807706936,0.9,1.1,-2.1866264091841e-05,1.808241098189e-05,0,0,0,0
33,2,1.02053865655747,0.9,1.1,-1.17563566703893e-06,-6.01948656253626e-07,0,0,0,0
34,2,1.03435937158527,0.9,1.1,-1.60923648451217e-06,-1.83714981005778e-07,0,0,0,0
35,1,1.01640290307087,0.9,1.1,-2.74972648384164e-06,3.55209421654124e-07,0,0,0,0
36,1,1.0163526476324,0.9,1.1,6.90079524190423e-07,-1.63291689891931e-07,0,0,0,0
37,2,1.01522175270501,0.9,1.1,-7.78972719217563e-06,3.48997637900084e-06,0,0,0,0
38,2,1.01443690212012,0.9,1.1,-2.20902450109861e-06,-8.04820805555551e-07,0,0,0,0
39,2,1.01790164237677,0.9,1.1,-4.16191151941803e-06,9.71736518806665e-07,0,0,0,0
40,1,1.04466971262497,0.9,1.1,4.05207281062303e-08,-6.4872168401009e-09,0,0,0,0
41,2,1.0094659251677,0.9,1.1,-1.49676797889242e-06,-1.50908325480259e-06,0,0,0,0
42,1,1.00578508251245,0.9,1.1,5.81617520367672e-07,-8.14047503017168e-08,0,0,0,0
43,1,1.00482252364181,0.9,1.1,1.54482363790009e-07,-2.43279950004616e-08,0,0,0,0
44,1,1.00481074646232,0.9,1.1,7.74326571750805e-08,-1.21494599103489e-08,0,0,0,0
45,1,1.00481914383023,0.9,1.1,2.30433877312919e-07,-3.70745056182953e-08,0,0,0,0
46,1,1.00573401267448,0.9,1.1,1.54165531895956e-07,-2.46093293312932e-08,0,0,0,0
47,1,1.01106505948288,0.9,1.1,8.17738099456733e-08,-1.29693071386494e-08,0,0,0,0
48,1,1.01070562982939,0.9,1.1,3.30245567781162e-07,-5.31913322415756e-08,0,0,0,0
49,1,0.998397185875321,0.9,1.1,3.54488147280563e-07,-5.65330618689658e-08,0,0,0,0
50,1,1.01536559769428,0.9,1.1,1.3936791809499e-07,-2.21520126894581e-08,0,0,0,0
51,1,1.01621072837308,0.9,1.1,1.14032270737141e-07,-1.81055231571192e-08,0,0,0,0
52,2,1.01746760372845,0.9,1.1,-3.62601898729054e-07,-8.38074657005805e-07,0,0,0,0
53,2,1.02253865821879,0.9,1.1,-3.24228345505162e-07,-7.43228552479991e-07,0,0,0,0
54,1,1.03974331718311,0.9,1.1,-7.94489183018193e-08,-2.86976752062419e-08,0,0,0,0
55,1,1.02074866898931,0.9,1.1,2.60217529302054e-07,-2.9011623658981e-08,0,0,0,0
56,1,1.02182089320972,0.9,1.1,2.4092453898561e-07,-3.78033899323116e-08,0,0,0,0
57,1,1.02400865866515,0.9,1.1,2.51928351957531e-07,-3.9718967351221e-08,0,0,0,0
58,1,1.03658104364802,0.9,1.1,2.47486536153474e-07,-3.69757394841352e-08,0,0,0,0
59,1,1.03118220445547,0.9,1.1,3.20027448097449e-07,5.86987716072462e-07,0,0,0,0
60,2,1.03938075951612,0.9,1.1,-1.70786315401017e-06,1.30307886703207e-07,0,0,0,0
61,1,1.02951373107751,0.9,1.1,5.59781124565006e-07,-9.97927202678328e-08,0,0,0,0
62,1,1.06296118665068,0.9,1.1,1.53875712826935e-07,4.24095310825608e-07,0,0,0,0
63,2,1.06297426991486,0.9,1.1,-2.14897055457186e-05,2.19184370280345e-05,0,0,0,0
64,1,1.00777383230509,0.9,1.1,8.51675228119575e-08,-1.40479774514424e-08,0,0,0,0
65,1,1.00685087525917,0.9,1.1,1.7300963861544e-07,-2.72875418441676e-08,0,0,0,0
66,1,1.00114748168374,0.9,1.1,1.56375659088326e-07,-2.50709869531462e-08,0,0,0,0
67,1,1.00135869970128,0.9,1.1,7.77655970729541e-08,-1.23529331728933e-08,0,0,0,0
68,1,1.00392299533273,0.9,1.1,1.68578864645497e-07,-2.70686742118165e-08,0,0,0,0
69,2,1.00219182923366,0.9,1.1,-6.12365084862176e-07,-2.00297835739605e-06,0,0,0,0
70,1,1.00207002691787,0.9,1.1,1.44958451464561e-07,-2.56721498226309e-08,0,0,0,0
71,1,1.00895691622179,0.9,1.1,2.97468563559278e-07,-4.4526999101735e-08,0,0,0,0
72,1,1.00560147391967,0.9,1.1,8.58092690236845e-08,-1.3283718656304e-08,0,0,0,0
73,1,1.00549999869219,0.9,1.1,1.71400859727555e-07,-2.62569108816502e-08,0,0,0,0
74,1,1.00511374458207,0.9,1.1,3.43520705214928e-07,-5.42237043460458e-08,0,0,0,0
75,1,1.00471616759953,0.9,1.1,8.38716016637875e-08,-1.61562398875992e-08,0,0,0,0
76,1,1.00470756159445,0.9,1.1,1.69848898501357e-07,-2.71681123778511e-08,0,0,0,0
77,1,1.0042175233413,0.9,1.1,4.45159779260962e-07,-6.75431984648034e-08,0,0,0,0
78,1,1.00688656907874,0.9,1.1,1.77456186634117e-07,-2.73892662022712e-08,0,0,0,0
79,2,1.0748228256732,0.9,1.1,-1.62199012265773e-06,-3.92716002650673e-06,0,0,0,0
80,2,1.01750995310416,0.9,1.1,-2.81397627333035e-06,3.23759255493883e-06,0,0,0,0
81,1,1.04783511164097,0.9,1.1,6.99257558522959e-07,-1.06309117064995e-07,0,0,0,0
82,2,1.01474460530676,0.9,1.1,-1.39667852039338e-06,9.37774693454685e-07,0,0,0,0
83,2,1.03145325762955,0.9,1.1,6.039494468979e-07,-1.08627073613921e-06,0,0,0,0
84,2,1.01466866212055,0.9,1.1,-3.75483757864004e-07,8.8546989407412e-08,0,0,0,0
85,1,1.0011851832143,0.9,1.1,7.56640354815374e-08,-1.19909363688331e-08,0,0,0,0
86,1,1.01028343595019,0.9,1.1,1.59363015228564e-07,-2.57012749624308e-08,0,0,0,0
87,1,1.01026984533849,0.9,1.1,2.13410584315454e-07,-3.32783026829597e-08,0,0,0,0
88,1,1.01037796809014,0.9,1.1,1.42852190521126e-07,-2.3385219108385e-08,0,0,0,0
89,1,1.01045135648776,0.9,1.1,7.98027937065626e-08,-1.23716579515654e-08,0,0,0,0
90,1,1.01082174937385,0.9,1.1,1.25463515132651e-07,-1.83244050142028e-08,0,0,0,0
91,1,1.01145379419545,0.9,1.1,5.73572931372723e-08,-6.56522180370045e-09,0,0,0,0
92,1,1.00284890350507,0.9,1.1,4.3691081508257e-07,-7.0633189575009e-08,0,0,0,0
93,1,1.01916386754155,0.9,1.1,4.46210631110944e-07,-8.18677563241277e-08,0,0,0,0
94,1,1.01390818246251,0.9,1.1,4.21696073615863e-07,-6.90866301666926e-08,0,0,0,0
95,2,1.01432074478215,0.9,1.1,-1.36854484367177e-06,-2.41660967681412e-07,0,0,0,0
96,1,1.01171667999873,0.9,1.1,2.11660899473998e-07,-3.42829455796112e-08,0,0,0,0
97,1,1.01177271874689,0.9,1.1,4.16260999003271e-07,-6.65428059876128e-08,0,0,0,0
98,1,1.01089945562659,0.9,1.1,3.64722541945639e-07,-3.49736940796763e-08,0,0,0,0
99,1,1.00715952741422,0.9,1.1,3.92302078822127e-07,-4.23250212655546e-08,0,0,0,0
100,1,1.00295043391692,0.9,1.1,2.164531727189e-07,-3.43256104096135e-08,0,0,0,0
101,1,1.00164259255933,0.9,1.1,2.30836940673385e-07,-3.55525317519145e-08,0,0,0,0
102,1,1.00167443294417,0.9,1.1,2.25759245076063e-07,-3.86008180280895e-08,0,0,0,0
103,1,1.00237194500798,0.9,1.1,1.14998688349743e-07,-1.82539608428733e-08,0,0,0,0
104,1,1.01071767112295,0.9,1.1,2.03857283054276e-07,-3.23538395727296e-08,0,0,0,0
105,1,1.01023713650716,0.9,1.1,7.96091189414483e-07,-1.26570179337371e-07,0,0,0,0
106,1,1.01041961091879,0.9,1.1,1.98911140891767e-07,-3.17045853112652e-08,0,0,0,0
107,1,1.01113573290875,0.9,1.1,4.60573385652197e-07,-7.21718733387444e-08,0,0,0,0
108,1,1.03344233410205,0.9,1.1,2.66379018398766e-07,-4.17239829492155e-08,0,0,0,0
109,1,1.03148942320116,0.9,1.1,2.68823413307473e-07,-4.24851879371468e-08,0,0,0,0
110,1,1.03596866445684,0.9,1.1,4.02294409340698e-07,-7.2048075144826e-08,0,0,0,0
111,1,1.02720606721685,0.9,1.1,2.68962391913874e-07,-4.49745029412751e-08,0,0,0,0
112,1,1.04029177685971,0.9,1.1,2.76086485229143e-07,-4.21013947662918e-08,0,0,0,0
113,1,1.03846353288871,0.9,1.1,2.71259944284452e-07,-3.60613684746713e-08,0,0,0,0
114,1,1.03768322725522,0.9,1.1,2.5687114479922e-07,-4.19654202013509e-08,0,0,0,0
115,1,1.04587250790856,0.9,1.1,2.09446437082761e-07,-4.19770825738075e-08,0,0,0,0
116,2,1.0461269814364,0.9,1.1,-8.55089652418428e-07,-4.12569967522813e-07,0,0,0,0
117,1,1.0466591571687,0.9,1.1,4.11944382605611e-07,-6.52219112051711e-08,0,0,0,0
118,1,1.04470114719731,0.9,1.1,2.77084460265087e-07,-4.41708013915187e-08,0,0,0,0
119,1,1.04451646727599,0.9,1.1,2.75205559674419e-07,-4.39103007426889e-08,0,0,0,0
120,1,1.04476004444263,0.9,1.1,2.68433920425082e-07,-4.26991778740282e-08,0,0,0,0
121,1,1.04584205371086,0.9,1.1,2.76528524523201e-07,-4.37283993737214e-08,0,0,0,0
122,1,1.04679957588479,0.9,1.1,2.74803392485978e-07,-4.35409208687787e-08,0,0,0,0
123,1,1.04552868712886,0.9,1.1,2.77393537473358e-07,-4.41533139911021e-08,0,0,0,0
124,1,1.02600669511229,0.9,1.1,7.50633059709571e-07,-1.2865874893242e-07,0,0,0,0
125,2,1.04179120290319,0.9,1.1,-9.50885929995593e-08,-2.04815374729717e-08,0,0,0,0
126,1,1.04177991015016,0.9,1.1,3.78512829968258e-08,-6.01808637645806e-09,0,0,0,0
127,2,1.03403471153277,0.9,1.1,-4.44083534603124e-05,2.84521686637618e-05,0,0,0,0
128,2,1.0421532546769,0.9,1.1,-1.85622999424595e-05,-2.04594212682707e-06,0,0,0,0
129,1,1.01211067649903,0.9,1.1,7.99870704781824e-07,-1.24791898342691e-07,0,0,0,0
130,1,1.01192365350631,0.9,1.1,2.85239289965489e-07,-4.55652354389158e-08,0,0,0,0
131,1,1.01631338953584,0.9,1.1,6.63335448791713e-07,-8.4545266620939e-08,0,0,0,0
132,1,1.02885558316128,0.9,1.1,1.80224532946481e-08,-1.00827911190417e-07,0,0,0,0
133,1,1.02701342133538,0.9,1.1,3.96520444922999e-07,-6.25136532816928e-08,0,0,0,0
134,1,1.00317767443343,0.9,1.1,4.25668968517812e-07,-6.78986006308335e-08,0,0,0,0
135,1,1.01037882672896,0.9,1.1,1.7665133356104e-07,-2.69762880436564e-08,0,0,0,0
136,1,1.01101296327982,0.9,1.1,1.81897287454547e-07,-2.88283638280595e-08,0,0,0,0
137,1,1.01443251455733,0.9,1.1,1.8353842357044e-07,-2.89053361107738e-08,0,0,0,0
138,2,1.01840654116138,0.9,1.1,-2.9864682318248e-06,1.46162815184425e-07,0,0,0,0
139,1,1.01873076510741,0.9,1.1,1.88041433091257e-07,-2.22474701855324e-08,0,0,0,0
140,1,1.01878128703816,0.9,1.1,2.29706422771869e-07,-1.6071463049272e-07,0,0,0,0
141,1,1.01629735370575,0.9,1.1,8.35646476460283e-08,-1.00453315804439e-08,0,0,0,0
142,1,1.01596276204991,0.9,1.1,4.80495758736765e-08,-8.98428692552855e-09,0,0,0,0
143,1,1.01901364950202,0.9,1.1,1.95370986943999e-07,-2.98968093337404e-08,0,0,0,0
144,1,1.01652749705374,0.9,1.1,1.77062196904387e-07,-2.63933914654291e-08,0,0,0,0
145,1,1.01513027078318,0.9,1.1,2.83466680350841e-07,-4.47136501435796e-08,0,0,0,0
146,1,1.01473342811815,0.9,1.1,9.53061785047282e-08,-1.58175738132482e-08,0,0,0,0
147,1,1.02380909117271,0.9,1.1,1.34641702231875e-07,-2.15744418857744e-08,0,0,0,0
148,1,1.03110693868082,0.9,1.1,1.61460906866751e-07,-2.57329806768736e-08,0,0,0,0
149,1,1.02956011929219,0.9,1.1,4.46169444501265e-07,-7.02959409432102e-08,0,0,0,0
150,2,1.02961370087707,0.9,1.1,3.10029419026137e-07,-4.80339462649582e-08,0,0,0,0
151,1,1.02959419558059,0.9,1.1,1.53889224030479e-07,-2.6096547145471e-08,0,0,0,0
152,1,1.01833394466532,0.9,1.1,2.08689945324636e-07,-3.57617119944864e-08,0,0,0,0
153,1,1.01671202882799,0.9,1.1,2.05808638575888e-07,-3.79915213004345e-08,0,0,0,0
154,1,1.02346043053261,0.9,1.1,2.97211897759553e-07,-6.2333296857453e-08,0,0,0,0
155,1,1.02319455582622,0.9,1.1,1.90788818521526e-07,-3.03629201642286e-08,0,0,0,0
156,1,1.02273216590374,0.9,1.1,3.81796052550953e-07,-6.08189916831425e-08,0,0,0,0
157,1,1.02271986510182,0.9,1.1,1.92341330418344e-07,-2.81943365355863e-08,0,0,0,0
158,1,1.02286452492714,0.9,1.1,2.08252882494264e-07,1.02945068268523e-08,0,0,0,0
159,1,1.01742671347085,0.9,1.1,1.87402510398726e-07,-2.92550969560601e-08,0,0,0,0
160,1,1.01356425456814,0.9,1.1,9.0813130793066e-08,-1.37232242930496e-08,0,0,0,0
161,2,1.00866171151636,0.9,1.1,1.07729384524191e-07,-2.13105455459939e-06,0,0,0,0
162,1,1.00863468861148,0.9,1.1,3.26430315666926e-07,-5.10739752573874e-08,0,0,0,0
163,1,1.00862752506867,0.9,1.1,5.34269533503107e-07,-7.73717451219014e-08,0,0,0,0
164,1,1.008623059648,0.9,1.1,8.33359985463744e-08,-1.29880604535226e-08,0,0,0,0
165,1,1.01110364183827,0.9,1.1,9.47615270696645e-08,-1.49691442401234e-08,0,0,0,0
166,1,1.01134145133227,0.9,1.1,9.46271363488904e-08,-1.50305587420796e-08,0,0,0,0
167,1,1.01760219902185,0.9,1.1,4.28114272921221e-07,-6.86551891726506e-08,0,0,0,0
168,1,1.0097635714558,0.9,1.1,1.21494441618353e-07,-1.93147785092218e-08,0,0,0,0
169,1,1.01576555147341,0.9,1.1,4.17395886742611e-07,-6.65235429242461e-08,0,0,0,0
170,1,1.01520533398946,0.9,1.1,4.70123394435973e-07,-7.83828380673812e-08,0,0,0,0
171,1,1.0152841476449,0.9,1.1,1.39568296475545e-06,-2.42540566797178e-07,0,0,0,0
172,1,1.01671555287668,0.9,1.1,4.25010606264209e-07,-5.96391342561065e-08,0,0,0,0
173,1,1.01908727826336,0.9,1.1,6.02548837491668e-07,-9.63103694018308e-08,0,0,0,0
174,1,1.018174307289,0.9,1.1,3.72906796997086e-07,-5.91258569881958e-08,0,0,0,0
175,1,1.01843062366996,0.9,1.1,4.07001023106091e-07,-6.40417167213636e-08,0,0,0,0
176,1,1.01765884414153,0.9,1.1,4.08169407606351e-07,-5.81363047980066e-08,0,0,0,0
177,1,1.01784626679456,0.9,1.1,2.02336372545631e-07,-3.21627410468373e-08,0,0,0,0
178,2,1.0177630467731,0.9,1.1,6.04429221340297e-07,-1.01668798727084e-07,0,0,0,0
179,1,1.01790711174644,0.9,1.1,3.81937367066598e-07,-6.14685767563738e-08,0,0,0,0
180,1,1.01949523594273,0.9,1.1,3.99351907987011e-07,-6.44679733208253e-08,0,0,0,0
181,1,1.01771025593166,0.9,1.1,4.04587352065278e-07,-6.45839843410601e-08,0,0,0,0
182,1,1.01592105556477,0.9,1.1,4.08743728641525e-07,-6.51044693850134e-08,0,0,0,0
183,1,1.01595653797965,0.9,1.1,4.09093170006258e-07,-6.37789505236741e-08,0,0,0,0
184,1,1.02023828997411,0.9,1.1,3.95453929158407e-07,-6.17573173156138e-08,0,0,0,0
185,1,1.01677145141296,0.9,1.1,4.08230317106018e-07,-6.43609440048598e-08,0,0,0,0
186,1,1.05085602922343,0.9,1.1,2.18186097633577e-07,-3.39770582762772e-08,0,0,0,0
187,1,1.04645047585044,0.9,1.1,1.676337619827e-07,-3.19681670458288e-08,0,0,0,0
188,1,1.01735399365809,0.9,1.1,-4.74383812232304e-08,8.98541336821768e-09,0,0,0,0
189,1,1.0263370441554,0.9,1.1,8.62636508891512e-08,-1.42682633327211e-08,0,0,0,0
190,1,1.02306902452975,0.9,1.1,4.50135573260013e-07,-1.00433529548472e-07,0,0,0,0
191,1,1.00821283706581,0.9,1.1,8.97039512892661e-07,-1.31035574058025e-07,0,0,0,0
192,1,1.01564358097314,0.9,1.1,1.11935123925377e-06,-1.96292360143957e-07,0,0,0,0
193,2,1.01225533572252,0.9,1.1,1.63475968406601e-06,-2.62879354395729e-07,0,0,0,0
194,1,1.02007308637009,0.9,1.1,2.52791441113231e-07,-6.42473062750781e-07,0,0,0,0
195,1,1.02002573334126,0.9,1.1,4.27553420223603e-07,-6.79930654313987e-08,0,0,0,0
196,1,1.01950311410402,0.9,1.1,4.26283795817994e-07,-6.73112825026745e-08,0,0,0,0
197,1,1.02306739875242,0.9,1.1,6.25349517946461e-07,-9.97307361694233e-08,0,0,0,0
198,1,1.01298026178139,0.9,1.1,6.31845036735967e-07,-9.92887782408358e-08,0,0,0,0
199,2,1.01443670929385,0.9,1.1,6.20021074482224e-07,-9.86782020678811e-08,0,0,0,0
200,1,1.01620400639917,0.9,1.1,5.59938381883285e-07,-2.20456933264224e-07,0,0,0,0
...
